[@0,0:26='!-Generator IDFEditor 1.50\n',<COMMENT>,1:0]
[@1,27:47='!-Option SortedOrder\n',<COMMENT>,2:0]
[@2,49:141='!-NOTE: All comments with '!-' are ignored by the IDFEditor and are generated automatically.\n',<COMMENT>,4:0]
[@3,142:220='!-      Use '!' comments if they need to be retained when using the IDFEditor.\n',<COMMENT>,5:0]
[@4,222:248='! Simulation Settings {{{1\n',<COMMENT>,7:0]
[@5,250:309='!-   ===========  ALL OBJECTS IN CLASS: VERSION ===========\n',<COMMENT>,9:0]
[@6,311:317='Version',<ALPHA>,11:0]
[@7,318:318=',',<','>,11:7]
[@8,319:321='9.2',<NUMERIC>,11:8]
[@9,322:322=';',<';'>,11:11]
[@10,344:365='!- Version Identifier\n',<COMMENT>,11:33]
[@11,368:437='!-   ===========  ALL OBJECTS IN CLASS: SIMULATIONCONTROL ===========\n',<COMMENT>,14:0]
[@12,439:455='SimulationControl',<'SimulationControl'>,16:0]
[@13,456:456=',',<','>,16:17]
[@14,462:463='No',<ALPHA>,17:4]
[@15,464:464=',',<','>,17:6]
[@16,487:516='!- Do Zone Sizing Calculation\n',<COMMENT>,17:29]
[@17,521:522='No',<ALPHA>,18:4]
[@18,523:523=',',<','>,18:6]
[@19,546:577='!- Do System Sizing Calculation\n',<COMMENT>,18:29]
[@20,582:583='No',<ALPHA>,19:4]
[@21,584:584=',',<','>,19:6]
[@22,607:637='!- Do Plant Sizing Calculation\n',<COMMENT>,19:29]
[@23,642:643='No',<ALPHA>,20:4]
[@24,644:644=',',<','>,20:6]
[@25,667:703='!- Run Simulation for Sizing Periods\n',<COMMENT>,20:29]
[@26,708:710='Yes',<ALPHA>,21:4]
[@27,711:711=',',<','>,21:7]
[@28,733:779='!- Run Simulation for Weather File Run Periods\n',<COMMENT>,21:29]
[@29,784:785='No',<ALPHA>,22:4]
[@30,786:786=',',<','>,22:6]
[@31,809:856='!- Do HVAC Sizing Simulation for Sizing Periods\n',<COMMENT>,22:29]
[@32,861:861='1',<NUMERIC>,23:4]
[@33,862:862=';',<';'>,23:5]
[@34,886:936='!- Maximum Number of HVAC Sizing Simulation Passes\n',<COMMENT>,23:29]
[@35,939:999='!-   ===========  ALL OBJECTS IN CLASS: BUILDING ===========\n',<COMMENT>,26:0]
[@36,1001:1008='Building',<'Building'>,28:0]
[@37,1009:1009=',',<','>,28:8]
[@38,1015:1025='3000 Atrium',<ALPHA>,29:4]
[@39,1026:1026=',',<','>,29:15]
[@40,1040:1047='!- Name\n',<COMMENT>,29:29]
[@41,1052:1052='0',<NUMERIC>,30:4]
[@42,1053:1053=',',<','>,30:5]
[@43,1077:1096='!- North Axis {deg}\n',<COMMENT>,30:29]
[@44,1101:1107='Suburbs',<ALPHA>,31:4]
[@45,1108:1108=',',<','>,31:11]
[@46,1126:1136='!- Terrain\n',<COMMENT>,31:29]
[@47,1141:1144='0.04',<NUMERIC>,32:4]
[@48,1145:1145=',',<','>,32:8]
[@49,1166:1202='!- Loads Convergence Tolerance Value\n',<COMMENT>,32:29]
[@50,1207:1209='0.4',<NUMERIC>,33:4]
[@51,1210:1210=',',<','>,33:7]
[@52,1232:1283='!- Temperature Convergence Tolerance Value {deltaC}\n',<COMMENT>,33:29]
[@53,1288:1299='FullExterior',<ALPHA>,34:4]
[@54,1300:1300=',',<','>,34:16]
[@55,1313:1334='!- Solar Distribution\n',<COMMENT>,34:29]
[@56,1339:1340='25',<NUMERIC>,35:4]
[@57,1341:1341=',',<','>,35:6]
[@58,1364:1396='!- Maximum Number of Warmup Days\n',<COMMENT>,35:29]
[@59,1401:1401='6',<NUMERIC>,36:4]
[@60,1402:1402=';',<';'>,36:5]
[@61,1426:1458='!- Minimum Number of Warmup Days\n',<COMMENT>,36:29]
[@62,1461:1521='!-   ===========  ALL OBJECTS IN CLASS: TIMESTEP ===========\n',<COMMENT>,39:0]
[@63,1523:1530='Timestep',<ALPHA>,41:0]
[@64,1531:1531=',',<','>,41:8]
[@65,1532:1532='6',<NUMERIC>,41:9]
[@66,1533:1533=';',<';'>,41:10]
[@67,1557:1588='!- Number of Timesteps per Hour\n',<COMMENT>,41:34]
[@68,1591:1652='!-   ===========  ALL OBJECTS IN CLASS: RUNPERIOD ===========\n',<COMMENT>,44:0]
[@69,1654:1662='RunPeriod',<ALPHA>,46:0]
[@70,1663:1663=',',<','>,46:9]
[@71,1669:1690='3000 Atrium Run Period',<ALPHA>,47:4]
[@72,1691:1691=',',<','>,47:26]
[@73,1694:1701='!- Name\n',<COMMENT>,47:29]
[@74,1706:1706='1',<NUMERIC>,48:4]
[@75,1707:1707=',',<','>,48:5]
[@76,1731:1745='!- Begin Month\n',<COMMENT>,48:29]
[@77,1750:1750='1',<NUMERIC>,49:4]
[@78,1751:1751=',',<','>,49:5]
[@79,1775:1796='!- Begin Day of Month\n',<COMMENT>,49:29]
[@80,1801:1804='2018',<NUMERIC>,50:4]
[@81,1805:1805=',',<','>,50:8]
[@82,1826:1839='!- Begin Year\n',<COMMENT>,50:29]
[@83,1844:1845='12',<NUMERIC>,51:4]
[@84,1846:1846=',',<','>,51:6]
[@85,1869:1881='!- End Month\n',<COMMENT>,51:29]
[@86,1886:1887='31',<NUMERIC>,52:4]
[@87,1888:1888=',',<','>,52:6]
[@88,1911:1930='!- End Day of Month\n',<COMMENT>,52:29]
[@89,1935:1938='2018',<NUMERIC>,53:4]
[@90,1939:1939=',',<','>,53:8]
[@91,1960:1971='!- End Year\n',<COMMENT>,53:29]
[@92,1976:1981='Monday',<ALPHA>,54:4]
[@93,1982:1982=',',<','>,54:10]
[@94,2001:2029='!- Day of Week for Start Day\n',<COMMENT>,54:29]
[@95,2034:2036='Yes',<ALPHA>,55:4]
[@96,2037:2037=',',<','>,55:7]
[@97,2059:2104='!- Use Weather File Holidays and Special Days\n',<COMMENT>,55:29]
[@98,2109:2111='Yes',<ALPHA>,56:4]
[@99,2112:2112=',',<','>,56:7]
[@100,2134:2176='!- Use Weather File Daylight Saving Period\n',<COMMENT>,56:29]
[@101,2181:2182='No',<ALPHA>,57:4]
[@102,2183:2183=',',<','>,57:6]
[@103,2206:2235='!- Apply Weekend Holiday Rule\n',<COMMENT>,57:29]
[@104,2240:2242='Yes',<ALPHA>,58:4]
[@105,2243:2243=',',<','>,58:7]
[@106,2265:2300='!- Use Weather File Rain Indicators\n',<COMMENT>,58:29]
[@107,2305:2307='Yes',<ALPHA>,59:4]
[@108,2308:2308=',',<','>,59:7]
[@109,2330:2365='!- Use Weather File Snow Indicators\n',<COMMENT>,59:29]
[@110,2370:2372='Yes',<ALPHA>,60:4]
[@111,2373:2373=';',<';'>,60:7]
[@112,2395:2421='!- Treat Weather as Actual\n',<COMMENT>,60:29]
[@113,2424:2440='! Schedules {{{1\n',<COMMENT>,63:0]
[@114,2442:2512='!-   ===========  ALL OBJECTS IN CLASS: SCHEDULETYPELIMITS ===========\n',<COMMENT>,65:0]
[@115,2514:2531='ScheduleTypeLimits',<ALPHA>,67:0]
[@116,2532:2532=',',<','>,67:18]
[@117,2538:2546='ZeroToOne',<ALPHA>,68:4]
[@118,2547:2547=',',<','>,68:13]
[@119,2563:2570='!- Name\n',<COMMENT>,68:29]
[@120,2575:2575='0',<NUMERIC>,69:4]
[@121,2576:2576=',',<','>,69:5]
[@122,2600:2620='!- Lower Limit Value\n',<COMMENT>,69:29]
[@123,2625:2625='1',<NUMERIC>,70:4]
[@124,2626:2626=',',<','>,70:5]
[@125,2650:2670='!- Upper Limit Value\n',<COMMENT>,70:29]
[@126,2675:2684='Continuous',<ALPHA>,71:4]
[@127,2685:2685=',',<','>,71:14]
[@128,2700:2715='!- Numeric Type\n',<COMMENT>,71:29]
[@129,2720:2732='Dimensionless',<ALPHA>,72:4]
[@130,2733:2733=';',<';'>,72:17]
[@131,2745:2757='!- Unit Type\n',<COMMENT>,72:29]
[@132,2759:2776='ScheduleTypeLimits',<ALPHA>,74:0]
[@133,2777:2777=',',<','>,74:18]
[@134,2783:2805='HVACTemplate Any Number',<ALPHA>,75:4]
[@135,2806:2806=';',<';'>,75:27]
[@136,2808:2815='!- Name\n',<COMMENT>,75:29]
[@137,2817:2834='ScheduleTypeLimits',<ALPHA>,77:0]
[@138,2835:2835=',',<','>,77:18]
[@139,2841:2854='Metabolic Rate',<ALPHA>,78:4]
[@140,2855:2855=',',<','>,78:18]
[@141,2866:2873='!- Name\n',<COMMENT>,78:29]
[@142,2878:2879='50',<NUMERIC>,79:4]
[@143,2880:2880=',',<','>,79:6]
[@144,2903:2923='!- Lower Limit Value\n',<COMMENT>,79:29]
[@145,2928:2931='1000',<NUMERIC>,80:4]
[@146,2932:2932=',',<','>,80:8]
[@147,2953:2973='!- Upper Limit Value\n',<COMMENT>,80:29]
[@148,2978:2987='Continuous',<ALPHA>,81:4]
[@149,2988:2988=',',<','>,81:14]
[@150,3003:3018='!- Numeric Type\n',<COMMENT>,81:29]
[@151,3023:3035='ActivityLevel',<ALPHA>,82:4]
[@152,3036:3036=';',<';'>,82:17]
[@153,3048:3060='!- Unit Type\n',<COMMENT>,82:29]
[@154,3063:3134='!-   ===========  ALL OBJECTS IN CLASS: SCHEDULE:DAY:HOURLY ===========\n',<COMMENT>,85:0]
[@155,3136:3154='Schedule:Day:Hourly',<ALPHA>,87:0]
[@156,3155:3155=',',<','>,87:19]
[@157,3161:3195='Daily Weekday Lights Plugs Schedule',<ALPHA>,88:4]
[@158,3196:3196=',',<','>,88:39]
[@159,3199:3206='!- Name\n',<COMMENT>,88:42]
[@160,3211:3219='ZeroToOne',<ALPHA>,89:4]
[@161,3220:3220=',',<','>,89:13]
[@162,3236:3264='!- Schedule Type Limits Name\n',<COMMENT>,89:29]
[@163,3269:3272='0.25',<NUMERIC>,90:4]
[@164,3273:3273=',',<','>,90:8]
[@165,3280:3289='!- Hour 1\n',<COMMENT>,90:15]
[@166,3294:3297='0.25',<NUMERIC>,91:4]
[@167,3298:3298=',',<','>,91:8]
[@168,3305:3314='!- Hour 2\n',<COMMENT>,91:15]
[@169,3319:3322='0.27',<NUMERIC>,92:4]
[@170,3323:3323=',',<','>,92:8]
[@171,3330:3339='!- Hour 3\n',<COMMENT>,92:15]
[@172,3344:3347='0.27',<NUMERIC>,93:4]
[@173,3348:3348=',',<','>,93:8]
[@174,3355:3364='!- Hour 4\n',<COMMENT>,93:15]
[@175,3369:3372='0.27',<NUMERIC>,94:4]
[@176,3373:3373=',',<','>,94:8]
[@177,3380:3389='!- Hour 5\n',<COMMENT>,94:15]
[@178,3394:3397='0.27',<NUMERIC>,95:4]
[@179,3398:3398=',',<','>,95:8]
[@180,3405:3414='!- Hour 6\n',<COMMENT>,95:15]
[@181,3419:3422='0.62',<NUMERIC>,96:4]
[@182,3423:3423=',',<','>,96:8]
[@183,3430:3439='!- Hour 7\n',<COMMENT>,96:15]
[@184,3444:3447='0.83',<NUMERIC>,97:4]
[@185,3448:3448=',',<','>,97:8]
[@186,3455:3464='!- Hour 8\n',<COMMENT>,97:15]
[@187,3469:3472='0.88',<NUMERIC>,98:4]
[@188,3473:3473=',',<','>,98:8]
[@189,3480:3489='!- Hour 9\n',<COMMENT>,98:15]
[@190,3494:3497='0.96',<NUMERIC>,99:4]
[@191,3498:3498=',',<','>,99:8]
[@192,3505:3515='!- Hour 10\n',<COMMENT>,99:15]
[@193,3520:3523='0.97',<NUMERIC>,100:4]
[@194,3524:3524=',',<','>,100:8]
[@195,3531:3541='!- Hour 11\n',<COMMENT>,100:15]
[@196,3546:3549='0.98',<NUMERIC>,101:4]
[@197,3550:3550=',',<','>,101:8]
[@198,3557:3567='!- Hour 12\n',<COMMENT>,101:15]
[@199,3572:3575='1.00',<NUMERIC>,102:4]
[@200,3576:3576=',',<','>,102:8]
[@201,3583:3593='!- Hour 13\n',<COMMENT>,102:15]
[@202,3598:3601='1.00',<NUMERIC>,103:4]
[@203,3602:3602=',',<','>,103:8]
[@204,3609:3619='!- Hour 14\n',<COMMENT>,103:15]
[@205,3624:3627='1.00',<NUMERIC>,104:4]
[@206,3628:3628=',',<','>,104:8]
[@207,3635:3645='!- Hour 15\n',<COMMENT>,104:15]
[@208,3650:3653='1.00',<NUMERIC>,105:4]
[@209,3654:3654=',',<','>,105:8]
[@210,3661:3671='!- Hour 16\n',<COMMENT>,105:15]
[@211,3676:3679='0.99',<NUMERIC>,106:4]
[@212,3680:3680=',',<','>,106:8]
[@213,3687:3697='!- Hour 17\n',<COMMENT>,106:15]
[@214,3702:3705='0.98',<NUMERIC>,107:4]
[@215,3706:3706=',',<','>,107:8]
[@216,3713:3723='!- Hour 18\n',<COMMENT>,107:15]
[@217,3728:3731='0.92',<NUMERIC>,108:4]
[@218,3732:3732=',',<','>,108:8]
[@219,3739:3749='!- Hour 19\n',<COMMENT>,108:15]
[@220,3754:3757='0.42',<NUMERIC>,109:4]
[@221,3758:3758=',',<','>,109:8]
[@222,3765:3775='!- Hour 20\n',<COMMENT>,109:15]
[@223,3780:3783='0.29',<NUMERIC>,110:4]
[@224,3784:3784=',',<','>,110:8]
[@225,3791:3801='!- Hour 21\n',<COMMENT>,110:15]
[@226,3806:3809='0.29',<NUMERIC>,111:4]
[@227,3810:3810=',',<','>,111:8]
[@228,3817:3827='!- Hour 22\n',<COMMENT>,111:15]
[@229,3832:3835='0.25',<NUMERIC>,112:4]
[@230,3836:3836=',',<','>,112:8]
[@231,3843:3853='!- Hour 23\n',<COMMENT>,112:15]
[@232,3858:3861='0.24',<NUMERIC>,113:4]
[@233,3862:3862=';',<';'>,113:8]
[@234,3869:3879='!- Hour 24\n',<COMMENT>,113:15]
[@235,3881:3899='Schedule:Day:Hourly',<ALPHA>,115:0]
[@236,3900:3900=',',<','>,115:19]
[@237,3906:3941='Daily Saturday Lights Plugs Schedule',<ALPHA>,116:4]
[@238,3942:3942=',',<','>,116:40]
[@239,3945:3952='!- Name\n',<COMMENT>,116:43]
[@240,3957:3965='ZeroToOne',<ALPHA>,117:4]
[@241,3966:3966=',',<','>,117:13]
[@242,3982:4010='!- Schedule Type Limits Name\n',<COMMENT>,117:29]
[@243,4015:4018='0.22',<NUMERIC>,118:4]
[@244,4019:4019=',',<','>,118:8]
[@245,4026:4035='!- Hour 1\n',<COMMENT>,118:15]
[@246,4040:4043='0.24',<NUMERIC>,119:4]
[@247,4044:4044=',',<','>,119:8]
[@248,4051:4060='!- Hour 2\n',<COMMENT>,119:15]
[@249,4065:4068='0.24',<NUMERIC>,120:4]
[@250,4069:4069=',',<','>,120:8]
[@251,4076:4085='!- Hour 3\n',<COMMENT>,120:15]
[@252,4090:4093='0.25',<NUMERIC>,121:4]
[@253,4094:4094=',',<','>,121:8]
[@254,4101:4110='!- Hour 4\n',<COMMENT>,121:15]
[@255,4115:4118='0.26',<NUMERIC>,122:4]
[@256,4119:4119=',',<','>,122:8]
[@257,4126:4135='!- Hour 5\n',<COMMENT>,122:15]
[@258,4140:4143='0.26',<NUMERIC>,123:4]
[@259,4144:4144=',',<','>,123:8]
[@260,4151:4160='!- Hour 6\n',<COMMENT>,123:15]
[@261,4165:4168='0.25',<NUMERIC>,124:4]
[@262,4169:4169=',',<','>,124:8]
[@263,4176:4185='!- Hour 7\n',<COMMENT>,124:15]
[@264,4190:4193='0.24',<NUMERIC>,125:4]
[@265,4194:4194=',',<','>,125:8]
[@266,4201:4210='!- Hour 8\n',<COMMENT>,125:15]
[@267,4215:4218='0.79',<NUMERIC>,126:4]
[@268,4219:4219=',',<','>,126:8]
[@269,4226:4235='!- Hour 9\n',<COMMENT>,126:15]
[@270,4240:4243='0.71',<NUMERIC>,127:4]
[@271,4244:4244=',',<','>,127:8]
[@272,4251:4261='!- Hour 10\n',<COMMENT>,127:15]
[@273,4266:4269='0.68',<NUMERIC>,128:4]
[@274,4270:4270=',',<','>,128:8]
[@275,4277:4287='!- Hour 11\n',<COMMENT>,128:15]
[@276,4292:4295='0.67',<NUMERIC>,129:4]
[@277,4296:4296=',',<','>,129:8]
[@278,4303:4313='!- Hour 12\n',<COMMENT>,129:15]
[@279,4318:4321='0.68',<NUMERIC>,130:4]
[@280,4322:4322=',',<','>,130:8]
[@281,4329:4339='!- Hour 13\n',<COMMENT>,130:15]
[@282,4344:4347='0.69',<NUMERIC>,131:4]
[@283,4348:4348=',',<','>,131:8]
[@284,4355:4365='!- Hour 14\n',<COMMENT>,131:15]
[@285,4370:4373='0.26',<NUMERIC>,132:4]
[@286,4374:4374=',',<','>,132:8]
[@287,4381:4391='!- Hour 15\n',<COMMENT>,132:15]
[@288,4396:4399='0.10',<NUMERIC>,133:4]
[@289,4400:4400=',',<','>,133:8]
[@290,4407:4417='!- Hour 16\n',<COMMENT>,133:15]
[@291,4422:4425='0.11',<NUMERIC>,134:4]
[@292,4426:4426=',',<','>,134:8]
[@293,4433:4443='!- Hour 17\n',<COMMENT>,134:15]
[@294,4448:4451='0.14',<NUMERIC>,135:4]
[@295,4452:4452=',',<','>,135:8]
[@296,4459:4469='!- Hour 18\n',<COMMENT>,135:15]
[@297,4474:4477='0.14',<NUMERIC>,136:4]
[@298,4478:4478=',',<','>,136:8]
[@299,4485:4495='!- Hour 19\n',<COMMENT>,136:15]
[@300,4500:4503='0.18',<NUMERIC>,137:4]
[@301,4504:4504=',',<','>,137:8]
[@302,4511:4521='!- Hour 20\n',<COMMENT>,137:15]
[@303,4526:4529='0.21',<NUMERIC>,138:4]
[@304,4530:4530=',',<','>,138:8]
[@305,4537:4547='!- Hour 21\n',<COMMENT>,138:15]
[@306,4552:4555='0.23',<NUMERIC>,139:4]
[@307,4556:4556=',',<','>,139:8]
[@308,4563:4573='!- Hour 22\n',<COMMENT>,139:15]
[@309,4578:4581='0.24',<NUMERIC>,140:4]
[@310,4582:4582=',',<','>,140:8]
[@311,4589:4599='!- Hour 23\n',<COMMENT>,140:15]
[@312,4604:4607='0.22',<NUMERIC>,141:4]
[@313,4608:4608=';',<';'>,141:8]
[@314,4615:4625='!- Hour 24\n',<COMMENT>,141:15]
[@315,4627:4645='Schedule:Day:Hourly',<ALPHA>,143:0]
[@316,4646:4646=',',<','>,143:19]
[@317,4652:4685='Daily Sunday Lights Plugs Schedule',<ALPHA>,144:4]
[@318,4686:4686=',',<','>,144:38]
[@319,4689:4696='!- Name\n',<COMMENT>,144:41]
[@320,4701:4709='ZeroToOne',<ALPHA>,145:4]
[@321,4710:4710=',',<','>,145:13]
[@322,4726:4754='!- Schedule Type Limits Name\n',<COMMENT>,145:29]
[@323,4759:4762='0.23',<NUMERIC>,146:4]
[@324,4763:4763=',',<','>,146:8]
[@325,4770:4779='!- Hour 1\n',<COMMENT>,146:15]
[@326,4784:4787='0.24',<NUMERIC>,147:4]
[@327,4788:4788=',',<','>,147:8]
[@328,4795:4804='!- Hour 2\n',<COMMENT>,147:15]
[@329,4809:4812='0.25',<NUMERIC>,148:4]
[@330,4813:4813=',',<','>,148:8]
[@331,4820:4829='!- Hour 3\n',<COMMENT>,148:15]
[@332,4834:4837='0.24',<NUMERIC>,149:4]
[@333,4838:4838=',',<','>,149:8]
[@334,4845:4854='!- Hour 4\n',<COMMENT>,149:15]
[@335,4859:4862='0.26',<NUMERIC>,150:4]
[@336,4863:4863=',',<','>,150:8]
[@337,4870:4879='!- Hour 5\n',<COMMENT>,150:15]
[@338,4884:4887='0.27',<NUMERIC>,151:4]
[@339,4888:4888=',',<','>,151:8]
[@340,4895:4904='!- Hour 6\n',<COMMENT>,151:15]
[@341,4909:4912='0.26',<NUMERIC>,152:4]
[@342,4913:4913=',',<','>,152:8]
[@343,4920:4929='!- Hour 7\n',<COMMENT>,152:15]
[@344,4934:4937='0.25',<NUMERIC>,153:4]
[@345,4938:4938=',',<','>,153:8]
[@346,4945:4954='!- Hour 8\n',<COMMENT>,153:15]
[@347,4959:4962='0.23',<NUMERIC>,154:4]
[@348,4963:4963=',',<','>,154:8]
[@349,4970:4979='!- Hour 9\n',<COMMENT>,154:15]
[@350,4984:4987='0.17',<NUMERIC>,155:4]
[@351,4988:4988=',',<','>,155:8]
[@352,4995:5005='!- Hour 10\n',<COMMENT>,155:15]
[@353,5010:5013='0.15',<NUMERIC>,156:4]
[@354,5014:5014=',',<','>,156:8]
[@355,5021:5031='!- Hour 11\n',<COMMENT>,156:15]
[@356,5036:5039='0.16',<NUMERIC>,157:4]
[@357,5040:5040=',',<','>,157:8]
[@358,5047:5057='!- Hour 12\n',<COMMENT>,157:15]
[@359,5062:5065='0.16',<NUMERIC>,158:4]
[@360,5066:5066=',',<','>,158:8]
[@361,5073:5083='!- Hour 13\n',<COMMENT>,158:15]
[@362,5088:5091='0.17',<NUMERIC>,159:4]
[@363,5092:5092=',',<','>,159:8]
[@364,5099:5109='!- Hour 14\n',<COMMENT>,159:15]
[@365,5114:5117='0.16',<NUMERIC>,160:4]
[@366,5118:5118=',',<','>,160:8]
[@367,5125:5135='!- Hour 15\n',<COMMENT>,160:15]
[@368,5140:5143='0.19',<NUMERIC>,161:4]
[@369,5144:5144=',',<','>,161:8]
[@370,5151:5161='!- Hour 16\n',<COMMENT>,161:15]
[@371,5166:5169='0.21',<NUMERIC>,162:4]
[@372,5170:5170=',',<','>,162:8]
[@373,5177:5187='!- Hour 17\n',<COMMENT>,162:15]
[@374,5192:5195='0.17',<NUMERIC>,163:4]
[@375,5196:5196=',',<','>,163:8]
[@376,5203:5213='!- Hour 18\n',<COMMENT>,163:15]
[@377,5218:5221='0.19',<NUMERIC>,164:4]
[@378,5222:5222=',',<','>,164:8]
[@379,5229:5239='!- Hour 19\n',<COMMENT>,164:15]
[@380,5244:5247='0.22',<NUMERIC>,165:4]
[@381,5248:5248=',',<','>,165:8]
[@382,5255:5265='!- Hour 20\n',<COMMENT>,165:15]
[@383,5270:5273='0.23',<NUMERIC>,166:4]
[@384,5274:5274=',',<','>,166:8]
[@385,5281:5291='!- Hour 21\n',<COMMENT>,166:15]
[@386,5296:5299='0.23',<NUMERIC>,167:4]
[@387,5300:5300=',',<','>,167:8]
[@388,5307:5317='!- Hour 22\n',<COMMENT>,167:15]
[@389,5322:5325='0.25',<NUMERIC>,168:4]
[@390,5326:5326=',',<','>,168:8]
[@391,5333:5343='!- Hour 23\n',<COMMENT>,168:15]
[@392,5348:5351='0.23',<NUMERIC>,169:4]
[@393,5352:5352=';',<';'>,169:8]
[@394,5359:5369='!- Hour 24\n',<COMMENT>,169:15]
[@395,5371:5389='Schedule:Day:Hourly',<ALPHA>,171:0]
[@396,5390:5390=',',<','>,171:19]
[@397,5396:5424='Daily People Weekday Schedule',<ALPHA>,172:4]
[@398,5425:5425=',',<','>,172:33]
[@399,5428:5435='!- Name\n',<COMMENT>,172:36]
[@400,5440:5448='ZeroToOne',<ALPHA>,173:4]
[@401,5449:5449=',',<','>,173:13]
[@402,5465:5493='!- Schedule Type Limits Name\n',<COMMENT>,173:29]
[@403,5498:5498='0',<NUMERIC>,174:4]
[@404,5499:5499=',',<','>,174:5]
[@405,5523:5532='!- Hour 1\n',<COMMENT>,174:29]
[@406,5537:5537='0',<NUMERIC>,175:4]
[@407,5538:5538=',',<','>,175:5]
[@408,5562:5571='!- Hour 2\n',<COMMENT>,175:29]
[@409,5576:5576='0',<NUMERIC>,176:4]
[@410,5577:5577=',',<','>,176:5]
[@411,5601:5610='!- Hour 3\n',<COMMENT>,176:29]
[@412,5615:5615='0',<NUMERIC>,177:4]
[@413,5616:5616=',',<','>,177:5]
[@414,5640:5649='!- Hour 4\n',<COMMENT>,177:29]
[@415,5654:5654='0',<NUMERIC>,178:4]
[@416,5655:5655=',',<','>,178:5]
[@417,5679:5688='!- Hour 5\n',<COMMENT>,178:29]
[@418,5693:5693='1',<NUMERIC>,179:4]
[@419,5694:5694=',',<','>,179:5]
[@420,5718:5727='!- Hour 6\n',<COMMENT>,179:29]
[@421,5732:5732='1',<NUMERIC>,180:4]
[@422,5733:5733=',',<','>,180:5]
[@423,5757:5766='!- Hour 7\n',<COMMENT>,180:29]
[@424,5771:5771='1',<NUMERIC>,181:4]
[@425,5772:5772=',',<','>,181:5]
[@426,5796:5805='!- Hour 8\n',<COMMENT>,181:29]
[@427,5810:5810='1',<NUMERIC>,182:4]
[@428,5811:5811=',',<','>,182:5]
[@429,5835:5844='!- Hour 9\n',<COMMENT>,182:29]
[@430,5849:5849='1',<NUMERIC>,183:4]
[@431,5850:5850=',',<','>,183:5]
[@432,5874:5884='!- Hour 10\n',<COMMENT>,183:29]
[@433,5889:5889='1',<NUMERIC>,184:4]
[@434,5890:5890=',',<','>,184:5]
[@435,5914:5924='!- Hour 11\n',<COMMENT>,184:29]
[@436,5929:5929='1',<NUMERIC>,185:4]
[@437,5930:5930=',',<','>,185:5]
[@438,5954:5964='!- Hour 12\n',<COMMENT>,185:29]
[@439,5969:5969='1',<NUMERIC>,186:4]
[@440,5970:5970=',',<','>,186:5]
[@441,5994:6004='!- Hour 13\n',<COMMENT>,186:29]
[@442,6009:6009='1',<NUMERIC>,187:4]
[@443,6010:6010=',',<','>,187:5]
[@444,6034:6044='!- Hour 14\n',<COMMENT>,187:29]
[@445,6049:6049='1',<NUMERIC>,188:4]
[@446,6050:6050=',',<','>,188:5]
[@447,6074:6084='!- Hour 15\n',<COMMENT>,188:29]
[@448,6089:6089='1',<NUMERIC>,189:4]
[@449,6090:6090=',',<','>,189:5]
[@450,6114:6124='!- Hour 16\n',<COMMENT>,189:29]
[@451,6129:6129='1',<NUMERIC>,190:4]
[@452,6130:6130=',',<','>,190:5]
[@453,6154:6164='!- Hour 17\n',<COMMENT>,190:29]
[@454,6169:6169='1',<NUMERIC>,191:4]
[@455,6170:6170=',',<','>,191:5]
[@456,6194:6204='!- Hour 18\n',<COMMENT>,191:29]
[@457,6209:6209='0',<NUMERIC>,192:4]
[@458,6210:6210=',',<','>,192:5]
[@459,6234:6244='!- Hour 19\n',<COMMENT>,192:29]
[@460,6249:6249='0',<NUMERIC>,193:4]
[@461,6250:6250=',',<','>,193:5]
[@462,6274:6284='!- Hour 20\n',<COMMENT>,193:29]
[@463,6289:6289='0',<NUMERIC>,194:4]
[@464,6290:6290=',',<','>,194:5]
[@465,6314:6324='!- Hour 21\n',<COMMENT>,194:29]
[@466,6329:6329='0',<NUMERIC>,195:4]
[@467,6330:6330=',',<','>,195:5]
[@468,6354:6364='!- Hour 22\n',<COMMENT>,195:29]
[@469,6369:6369='0',<NUMERIC>,196:4]
[@470,6370:6370=',',<','>,196:5]
[@471,6394:6404='!- Hour 23\n',<COMMENT>,196:29]
[@472,6409:6409='0',<NUMERIC>,197:4]
[@473,6410:6410=';',<';'>,197:5]
[@474,6434:6444='!- Hour 24\n',<COMMENT>,197:29]
[@475,6446:6466='Schedule:Day:Interval',<ALPHA>,199:0]
[@476,6467:6467=',',<','>,199:21]
[@477,6473:6501='Daily People Weekend Schedule',<ALPHA>,200:4]
[@478,6502:6502=',',<','>,200:33]
[@479,6505:6512='!- Name\n',<COMMENT>,200:36]
[@480,6517:6525='ZeroToOne',<ALPHA>,201:4]
[@481,6526:6526=',',<','>,201:13]
[@482,6542:6570='!- Schedule Type Limits Name\n',<COMMENT>,201:29]
[@483,6575:6576='No',<ALPHA>,202:4]
[@484,6577:6577=',',<','>,202:6]
[@485,6602:6616='!- Interpolate\n',<COMMENT>,202:31]
[@486,6621:6631='Until 24:00',<ALPHA>,203:4]
[@487,6632:6632=',',<','>,203:15]
[@488,6656:6665='!- Hour 1\n',<COMMENT>,203:39]
[@489,6670:6670='0',<NUMERIC>,204:4]
[@490,6671:6671=';',<';'>,204:5]
[@491,6695:6704='!- Hour 2\n',<COMMENT>,204:29]
[@492,6706:6777='!-   ===========  ALL OBJECTS IN CLASS: SCHEDULE:WEEK:DAILY ===========\n',<COMMENT>,206:0]
[@493,6779:6797='Schedule:Week:Daily',<ALPHA>,208:0]
[@494,6798:6798=',',<','>,208:19]
[@495,6804:6823='Normal Week Schedule',<ALPHA>,209:4]
[@496,6824:6824=',',<','>,209:24]
[@497,6829:6836='!- Name\n',<COMMENT>,209:29]
[@498,6841:6874='Daily Sunday Lights Plugs Schedule',<ALPHA>,210:4]
[@499,6875:6875=',',<','>,210:38]
[@500,6878:6905='!- Sunday Schedule:Day Name\n',<COMMENT>,210:41]
[@501,6910:6944='Daily Weekday Lights Plugs Schedule',<ALPHA>,211:4]
[@502,6945:6945=',',<','>,211:39]
[@503,6948:6975='!- Monday Schedule:Day Name\n',<COMMENT>,211:42]
[@504,6980:7014='Daily Weekday Lights Plugs Schedule',<ALPHA>,212:4]
[@505,7015:7015=',',<','>,212:39]
[@506,7018:7046='!- Tuesday Schedule:Day Name\n',<COMMENT>,212:42]
[@507,7051:7085='Daily Weekday Lights Plugs Schedule',<ALPHA>,213:4]
[@508,7086:7086=',',<','>,213:39]
[@509,7089:7119='!- Wednesday Schedule:Day Name\n',<COMMENT>,213:42]
[@510,7124:7158='Daily Weekday Lights Plugs Schedule',<ALPHA>,214:4]
[@511,7159:7159=',',<','>,214:39]
[@512,7162:7191='!- Thursday Schedule:Day Name\n',<COMMENT>,214:42]
[@513,7196:7230='Daily Weekday Lights Plugs Schedule',<ALPHA>,215:4]
[@514,7231:7231=',',<','>,215:39]
[@515,7234:7261='!- Friday Schedule:Day Name\n',<COMMENT>,215:42]
[@516,7266:7301='Daily Saturday Lights Plugs Schedule',<ALPHA>,216:4]
[@517,7302:7302=',',<','>,216:40]
[@518,7305:7334='!- Saturday Schedule:Day Name\n',<COMMENT>,216:43]
[@519,7339:7372='Daily Sunday Lights Plugs Schedule',<ALPHA>,217:4]
[@520,7373:7373=',',<','>,217:38]
[@521,7376:7404='!- Holiday Schedule:Day Name\n',<COMMENT>,217:41]
[@522,7409:7443='Daily Weekday Lights Plugs Schedule',<ALPHA>,218:4]
[@523,7444:7444=',',<','>,218:39]
[@524,7447:7483='!- SummerDesignDay Schedule:Day Name\n',<COMMENT>,218:42]
[@525,7488:7522='Daily Weekday Lights Plugs Schedule',<ALPHA>,219:4]
[@526,7523:7523=',',<','>,219:39]
[@527,7526:7562='!- WinterDesignDay Schedule:Day Name\n',<COMMENT>,219:42]
[@528,7567:7601='Daily Weekday Lights Plugs Schedule',<ALPHA>,220:4]
[@529,7602:7602=',',<','>,220:39]
[@530,7605:7636='!- CustomDay1 Schedule:Day Name\n',<COMMENT>,220:42]
[@531,7641:7675='Daily Weekday Lights Plugs Schedule',<ALPHA>,221:4]
[@532,7676:7676=';',<';'>,221:39]
[@533,7679:7710='!- CustomDay2 Schedule:Day Name\n',<COMMENT>,221:42]
[@534,7712:7730='Schedule:Week:Daily',<ALPHA>,223:0]
[@535,7731:7731=',',<','>,223:19]
[@536,7737:7763='Normal Week People Schedule',<ALPHA>,224:4]
[@537,7764:7764=',',<','>,224:31]
[@538,7767:7774='!- Name\n',<COMMENT>,224:34]
[@539,7779:7807='Daily People Weekend Schedule',<ALPHA>,225:4]
[@540,7808:7808=',',<','>,225:33]
[@541,7811:7838='!- Sunday Schedule:Day Name\n',<COMMENT>,225:36]
[@542,7843:7871='Daily People Weekday Schedule',<ALPHA>,226:4]
[@543,7872:7872=',',<','>,226:33]
[@544,7875:7902='!- Monday Schedule:Day Name\n',<COMMENT>,226:36]
[@545,7907:7935='Daily People Weekday Schedule',<ALPHA>,227:4]
[@546,7936:7936=',',<','>,227:33]
[@547,7939:7967='!- Tuesday Schedule:Day Name\n',<COMMENT>,227:36]
[@548,7972:8000='Daily People Weekday Schedule',<ALPHA>,228:4]
[@549,8001:8001=',',<','>,228:33]
[@550,8004:8034='!- Wednesday Schedule:Day Name\n',<COMMENT>,228:36]
[@551,8039:8067='Daily People Weekday Schedule',<ALPHA>,229:4]
[@552,8068:8068=',',<','>,229:33]
[@553,8071:8100='!- Thursday Schedule:Day Name\n',<COMMENT>,229:36]
[@554,8105:8133='Daily People Weekday Schedule',<ALPHA>,230:4]
[@555,8134:8134=',',<','>,230:33]
[@556,8137:8164='!- Friday Schedule:Day Name\n',<COMMENT>,230:36]
[@557,8169:8197='Daily People Weekend Schedule',<ALPHA>,231:4]
[@558,8198:8198=',',<','>,231:33]
[@559,8201:8230='!- Saturday Schedule:Day Name\n',<COMMENT>,231:36]
[@560,8235:8263='Daily People Weekend Schedule',<ALPHA>,232:4]
[@561,8264:8264=',',<','>,232:33]
[@562,8267:8295='!- Holiday Schedule:Day Name\n',<COMMENT>,232:36]
[@563,8300:8328='Daily People Weekday Schedule',<ALPHA>,233:4]
[@564,8329:8329=',',<','>,233:33]
[@565,8332:8368='!- SummerDesignDay Schedule:Day Name\n',<COMMENT>,233:36]
[@566,8373:8401='Daily People Weekday Schedule',<ALPHA>,234:4]
[@567,8402:8402=',',<','>,234:33]
[@568,8405:8441='!- WinterDesignDay Schedule:Day Name\n',<COMMENT>,234:36]
[@569,8446:8474='Daily People Weekday Schedule',<ALPHA>,235:4]
[@570,8475:8475=',',<','>,235:33]
[@571,8478:8509='!- CustomDay1 Schedule:Day Name\n',<COMMENT>,235:36]
[@572,8514:8542='Daily People Weekday Schedule',<ALPHA>,236:4]
[@573,8543:8543=';',<';'>,236:33]
[@574,8546:8577='!- CustomDay2 Schedule:Day Name\n',<COMMENT>,236:36]
[@575,8580:8645='!-   ===========  ALL OBJECTS IN CLASS: SCHEDULE:YEAR ===========\n',<COMMENT>,239:0]
[@576,8647:8659='Schedule:Year',<ALPHA>,241:0]
[@577,8660:8660=',',<','>,241:13]
[@578,8666:8693='Yearly Lights Plugs Schedule',<ALPHA>,242:4]
[@579,8694:8694=',',<','>,242:32]
[@580,8697:8704='!- Name\n',<COMMENT>,242:35]
[@581,8709:8717='ZeroToOne',<ALPHA>,243:4]
[@582,8718:8718=',',<','>,243:13]
[@583,8734:8762='!- Schedule Type Limits Name\n',<COMMENT>,243:29]
[@584,8767:8786='Normal Week Schedule',<ALPHA>,244:4]
[@585,8787:8787=',',<','>,244:24]
[@586,8792:8815='!- Schedule:Week Name 1\n',<COMMENT>,244:29]
[@587,8820:8820='1',<NUMERIC>,245:4]
[@588,8821:8821=',',<','>,245:5]
[@589,8845:8861='!- Start Month 1\n',<COMMENT>,245:29]
[@590,8866:8866='1',<NUMERIC>,246:4]
[@591,8867:8867=',',<','>,246:5]
[@592,8891:8905='!- Start Day 1\n',<COMMENT>,246:29]
[@593,8910:8911='12',<NUMERIC>,247:4]
[@594,8912:8912=',',<','>,247:6]
[@595,8935:8949='!- End Month 1\n',<COMMENT>,247:29]
[@596,8954:8955='31',<NUMERIC>,248:4]
[@597,8956:8956=';',<';'>,248:6]
[@598,8979:8991='!- End Day 1\n',<COMMENT>,248:29]
[@599,8993:9005='Schedule:Year',<ALPHA>,250:0]
[@600,9006:9006=',',<','>,250:13]
[@601,9012:9033='Yearly People Schedule',<ALPHA>,251:4]
[@602,9034:9034=',',<','>,251:26]
[@603,9037:9044='!- Name\n',<COMMENT>,251:29]
[@604,9049:9057='ZeroToOne',<ALPHA>,252:4]
[@605,9058:9058=',',<','>,252:13]
[@606,9074:9102='!- Schedule Type Limits Name\n',<COMMENT>,252:29]
[@607,9107:9133='Normal Week People Schedule',<ALPHA>,253:4]
[@608,9134:9134=',',<','>,253:31]
[@609,9137:9160='!- Schedule:Week Name 1\n',<COMMENT>,253:34]
[@610,9165:9165='1',<NUMERIC>,254:4]
[@611,9166:9166=',',<','>,254:5]
[@612,9190:9206='!- Start Month 1\n',<COMMENT>,254:29]
[@613,9211:9211='1',<NUMERIC>,255:4]
[@614,9212:9212=',',<','>,255:5]
[@615,9236:9250='!- Start Day 1\n',<COMMENT>,255:29]
[@616,9255:9256='12',<NUMERIC>,256:4]
[@617,9257:9257=',',<','>,256:6]
[@618,9280:9294='!- End Month 1\n',<COMMENT>,256:29]
[@619,9299:9300='31',<NUMERIC>,257:4]
[@620,9301:9301=';',<';'>,257:6]
[@621,9324:9336='!- End Day 1\n',<COMMENT>,257:29]
[@622,9339:9407='!-   ===========  ALL OBJECTS IN CLASS: SCHEDULE:COMPACT ===========\n',<COMMENT>,260:0]
[@623,9409:9450='! Baseline Zone Temperature Setpoints {{{\n',<COMMENT>,262:0]
[@624,9452:9472='Schedule:Day:Interval',<ALPHA>,264:0]
[@625,9473:9473=',',<','>,264:21]
[@626,9477:9509='Baseline Weekday Heating Setpoint',<ALPHA>,265:2]
[@627,9510:9510=',',<','>,265:35]
[@628,9514:9536='HVACTemplate Any Number',<ALPHA>,266:2]
[@629,9537:9537=',',<','>,266:25]
[@630,9541:9541=',',<','>,267:2]
[@631,9545:9556='Until: 05:00',<ALPHA>,268:2]
[@632,9557:9557=',',<','>,268:14]
[@633,9558:9559='19',<NUMERIC>,268:15]
[@634,9560:9560=',',<','>,268:17]
[@635,9563:9571='! 66.2°F\n',<COMMENT>,268:20]
[@636,9574:9585='Until: 18:00',<ALPHA>,269:2]
[@637,9586:9586=',',<','>,269:14]
[@638,9587:9593='21.3889',<NUMERIC>,269:15]
[@639,9594:9594=',',<','>,269:22]
[@640,9596:9604='! 70.5°F\n',<COMMENT>,269:24]
[@641,9607:9618='Until: 24:00',<ALPHA>,270:2]
[@642,9619:9619=',',<','>,270:14]
[@643,9620:9645='19;\n\nSchedule:Day:Interval',<ALPHA>,270:15]
[@644,9646:9646=',',<','>,272:21]
[@645,9650:9683='Baseline Saturday Heating Setpoint',<ALPHA>,273:2]
[@646,9684:9684=',',<','>,273:36]
[@647,9688:9710='HVACTemplate Any Number',<ALPHA>,274:2]
[@648,9711:9711=',',<','>,274:25]
[@649,9715:9715=',',<','>,275:2]
[@650,9719:9730='Until: 06:00',<ALPHA>,276:2]
[@651,9731:9731=',',<','>,276:14]
[@652,9732:9733='19',<NUMERIC>,276:15]
[@653,9734:9734=',',<','>,276:17]
[@654,9738:9749='Until: 13:00',<ALPHA>,277:2]
[@655,9750:9750=',',<','>,277:14]
[@656,9751:9757='21.3889',<NUMERIC>,277:15]
[@657,9758:9758=',',<','>,277:22]
[@658,9762:9773='Until: 24:00',<ALPHA>,278:2]
[@659,9774:9774=',',<','>,278:14]
[@660,9775:9800='19;\n\nSchedule:Day:Interval',<ALPHA>,278:15]
[@661,9801:9801=',',<','>,280:21]
[@662,9805:9836='Baseline Sunday Heating Setpoint',<ALPHA>,281:2]
[@663,9837:9837=',',<','>,281:34]
[@664,9841:9863='HVACTemplate Any Number',<ALPHA>,282:2]
[@665,9864:9864=',',<','>,282:25]
[@666,9868:9868=',',<','>,283:2]
[@667,9872:9883='Until: 24:00',<ALPHA>,284:2]
[@668,9884:9884=',',<','>,284:14]
[@669,9885:9910='19;\n\nSchedule:Week:Compact',<ALPHA>,284:15]